/*---------------------------------------------------------------------------*\
| =========                 |                                                 |
| \\      /  F ield         | OpenFOAM: The Open Source CFD Toolbox           |
|  \\    /   O peration     | Version:  2.3.1                                 |
|   \\  /    A nd           | Web:      www.OpenFOAM.org                      |
|    \\/     M anipulation  |                                                 |
\*---------------------------------------------------------------------------*/
Build  : 2.3.1-bcfaaa7b8660
Exec   : rhoReactingFoam
Date   : Apr 06 2015
Time   : 20:41:06
Host   : "james-uni"
PID    : 30283
Case   : /home/james/Documents/Simulations/verifyAgainstNISTDataWithTemperatureGradient
nProcs : 1
sigFpe : Enabling floating point exception trapping (FOAM_SIGFPE).
fileModificationChecking : Monitoring run-time modified files using timeStampMaster
allowSystemOperations : Allowing user-supplied system call operations

// * * * * * * * * * * * * * * * * * * * * * * * * * * * * * * * * * * * * * //
Create time

Create mesh for time = 0


Reading g
Creating reaction model

Selecting combustion model noCombustion<rhoThermoCombustion>
Selecting thermodynamics package 
{
    type            heRhoThermo;
    mixture         reactingMixture;
    transport       polynomial;
    thermo          hPolynomial;
    energy          sensibleEnthalpy;
    equationOfState PengRobinsonGas;
    specie          specie;
}

Selecting chemistryReader foamChemistryReader
Reading field U

Reading/calculating face flux field phi

Creating turbulence model.

Selecting turbulence model type LESModel
Selecting LES turbulence model Smagorinsky
Selecting LES delta type cubeRootVol
SmagorinskyCoeffs
{
    ce              1.048;
    Prt             1;
    ck              0.02;
}

Creating field dpdt

Creating field kinetic energy K

No finite volume options present

Courant Number mean: 0 max: 0

PIMPLE: Operating solver in PISO mode


Starting time loop

fieldAverage fieldAverage1:
    Starting averaging at time 0

Courant Number mean: 0 max: 0
Time = 1e-06

diagonal:  Solving for rho, Initial residual = 0, Final residual = 0, No Iterations 0
smoothSolver:  Solving for Ux, Initial residual = 0.999697, Final residual = 1.5175e-09, No Iterations 3
smoothSolver:  Solving for Uy, Initial residual = 1, Final residual = 5.80025e-09, No Iterations 3
smoothSolver:  Solving for Uz, Initial residual = 0, Final residual = 0, No Iterations 0
smoothSolver:  Solving for h, Initial residual = 7.53954e-10, Final residual = 7.53954e-10, No Iterations 0
min/max(T) = 64.3484, 298
DICPCG:  Solving for p, Initial residual = 0.700487, Final residual = 2.37175e-13, No Iterations 1
diagonal:  Solving for rho, Initial residual = 0, Final residual = 0, No Iterations 0
time step continuity errors : sum local = 5.22718e-13, global = 1.16208e-15, cumulative = 1.16208e-15
ExecutionTime = 3.57 s  ClockTime = 3 s

fieldAverage fieldAverage1:
    Reading/initialising field UMean
    Reading/initialising field pMean
    Reading/initialising field UPrime2Mean
    Reading/initialising field pPrime2Mean

fieldAverage fieldAverage1 output:
    Calculating averages

    Writing average fields

End

